* SPICE NETLIST
***************************************

.SUBCKT L POS NEG SUB
.ENDS
***************************************
.SUBCKT YA2GSD O E2 E8 E4 I SR E
** N=8 EP=7 IP=0 FDC=0
.ENDS
***************************************
.SUBCKT ICV_1 1 2 3 4 5 6
** N=6 EP=6 IP=8 FDC=0
X0 1 2 2 2 5 3 4 YA2GSD $T=0 0 0 0 $X=2850 $Y=0
.ENDS
***************************************
.SUBCKT XMD I SMT PU PD O
** N=6 EP=5 IP=0 FDC=0
.ENDS
***************************************
.SUBCKT ICV_2 1 2 3 4
** N=4 EP=4 IP=6 FDC=0
X0 1 2 2 2 3 XMD $T=0 0 0 0 $X=2850 $Y=0
.ENDS
***************************************
.SUBCKT ICV_3 1 2 9 10 11 12 13 14 15 16 17 18 19 20 21 22 23 30 31 32
+ 33 34 49
** N=69 EP=23 IP=48 FDC=0
X0 11 1 1 1 34 XMD $T=243040 1350160 0 180 $X=183270 $Y=1210660
X1 12 1 1 1 21 XMD $T=345960 1350160 0 180 $X=286190 $Y=1210660
X2 13 14 14 14 22 XMD $T=448880 1350160 0 180 $X=389110 $Y=1210660
X3 15 2 2 2 23 XMD $T=551800 1350160 0 180 $X=492030 $Y=1210660
X4 16 9 9 9 30 XMD $T=860560 1350160 0 180 $X=800790 $Y=1210660
X5 17 9 9 9 31 XMD $T=963480 1350160 0 180 $X=903710 $Y=1210660
X6 18 10 10 10 32 XMD $T=1066400 1350160 0 180 $X=1006630 $Y=1210660
X7 19 20 20 20 33 XMD $T=1169320 1350160 0 180 $X=1109550 $Y=1210660
.ENDS
***************************************
.SUBCKT INV1S I VCC O GND
** N=5 EP=4 IP=0 FDC=0
.ENDS
***************************************
.SUBCKT BUF1S I GND VCC O
** N=5 EP=4 IP=0 FDC=0
.ENDS
***************************************
.SUBCKT DELB I GND VCC O
** N=5 EP=4 IP=0 FDC=0
.ENDS
***************************************
.SUBCKT DELA I GND VCC O
** N=5 EP=4 IP=0 FDC=0
.ENDS
***************************************
.SUBCKT QDFFRBN D CK RB VCC GND Q
** N=7 EP=6 IP=0 FDC=0
.ENDS
***************************************
.SUBCKT ICV_4 1 2 3 4 5 6 7
** N=7 EP=7 IP=10 FDC=0
X0 1 2 3 4 DELB $T=0 0 0 0 $X=0 $Y=-380
X1 5 2 3 6 DELB $T=4960 0 0 0 $X=4960 $Y=-380
.ENDS
***************************************
.SUBCKT ICV_5 1 2 3 4 5 6 7
** N=7 EP=7 IP=10 FDC=0
X0 1 2 3 4 DELB $T=0 0 0 0 $X=0 $Y=-380
X1 5 2 3 6 DELA $T=4960 0 0 0 $X=4960 $Y=-380
.ENDS
***************************************
.SUBCKT MUX2 B S VCC GND O A
** N=7 EP=6 IP=0 FDC=0
.ENDS
***************************************
.SUBCKT AOI22S A1 B1 O B2 GND A2 VCC
** N=8 EP=7 IP=0 FDC=0
.ENDS
***************************************
.SUBCKT AN4S I1 I2 I4 I3 VCC GND O
** N=8 EP=7 IP=0 FDC=0
.ENDS
***************************************
.SUBCKT BUF1 I VCC GND O
** N=5 EP=4 IP=0 FDC=0
.ENDS
***************************************
.SUBCKT BUF1CK I GND VCC O
** N=5 EP=4 IP=0 FDC=0
.ENDS
***************************************
.SUBCKT INV2 I O GND VCC
** N=5 EP=4 IP=0 FDC=0
.ENDS
***************************************
.SUBCKT BUF2 I O GND VCC
** N=5 EP=4 IP=0 FDC=0
.ENDS
***************************************
.SUBCKT ND3 I3 GND I2 O VCC I1
** N=7 EP=6 IP=0 FDC=0
.ENDS
***************************************
.SUBCKT ND2S I1 O I2 VCC GND
** N=6 EP=5 IP=0 FDC=0
.ENDS
***************************************
.SUBCKT MOAI1S B1 B2 GND A1 A2 O VCC
** N=8 EP=7 IP=0 FDC=0
.ENDS
***************************************
.SUBCKT NR2 I1 VCC O I2 GND
** N=6 EP=5 IP=0 FDC=0
.ENDS
***************************************
.SUBCKT INV12CK I O GND VCC
** N=5 EP=4 IP=0 FDC=0
.ENDS
***************************************
.SUBCKT OR2 I2 I1 VCC GND O
** N=6 EP=5 IP=0 FDC=0
.ENDS
***************************************
.SUBCKT OA22 A1 A2 B1 B2 VCC GND O
** N=8 EP=7 IP=0 FDC=0
.ENDS
***************************************
.SUBCKT AN2 I1 I2 GND VCC O
** N=6 EP=5 IP=0 FDC=0
.ENDS
***************************************
.SUBCKT NR3 I1 VCC I2 I3 O GND
** N=7 EP=6 IP=0 FDC=0
.ENDS
***************************************
.SUBCKT OR2B1S I1 B1 GND O VCC
** N=6 EP=5 IP=0 FDC=0
.ENDS
***************************************
.SUBCKT ICV_6 1 2 3 4 5 6 7 8 9 10 11 12 13 14 15 16 17 18 19 20
+ 21 22 23 24 25 26 27 28 29 30 31 32 33 34 35 36 37 38 39 40
+ 41 42 43 44 45 46 47 48 49 50 51 52 53 54 55 56 57 58 59 60
+ 61 62 63 64 65 66 67 68 69 70 71 72 73 74 75 76 77 78 79 80
+ 81 82 83 84 85 86 87 88 89 90 91 92 93 94 95 96 97 98 99 100
+ 101 102 103 104 105 106 107 108 109 110 111 112 113 114 115 116 117 118 119 120
+ 121 122 123 124 125 126 127 128 129 130 131 132 133 134 135 136 137 138 139 140
+ 141 142 143 144 145 146 147 148 149 150 151 152 153 154 155 156 157 158 159 160
+ 161 162 163 164 165 166 167 168 169 170 171 172 173 174 175 176 177 178 179 180
+ 181 182 183 184 185 186 187 188 189 190 191 192 193 194 195 196 197 198 199 200
+ 201 202 203 204 205 206 207 208 209 210 211 212 213 214 215 216 217 218 219 220
+ 221 222 223 224 225 226 227 228 230 231 232 233 234 235 236 237 238 239 240 241
+ 242 243 244 245 247 248 249 250 251 252 253 254 255 256 257 259 260 261 262 263
+ 264 265 266 267 268 269 270 271 272 273 274 275 276 277 278 279 280 281 282 283
+ 284 285 286 287 288 289 290 291 292 293 294 295 296 297 298 299 301 302 303 304
+ 305 306 307 309 310 311 312 313 314 315 316 317 319 320 321 322 323 324 325 326
+ 327 328 329 330 331 332 333 334 335 336 337 338 339 340 341 342 343 344 345 346
+ 347 348 349 350 351 352 353 354 355 356 357 358 359 360 361 362 363 364 365 366
+ 367 368 369 370 371 372 373 374 375 376 377 378 379 380 381 382 383 384 385 386
+ 387 388 389 390 391 392 393 394 395 396 397 398 399 400 401 402 403 404 405 406
+ 407 408 409 410 411 412 413 414 415 416 417 418 419 420 421 422 423 424 425 426
+ 427 428 429 430 431 432 433 434 435 436 437 438 439 440 441 442 443 444 445 446
+ 447 448 449 450 451 452 453 454 455 456 457 458 459 460 461 462 463 464 465 466
+ 467 468 469 470 471 472 473 474 475 476 477 478 479 480 481 482 483 484 485 486
+ 487 488 489 490 491 492 493 494 495 496 497 498 499 500 501 502 503 504 505 506
+ 507 508 509 510 511 512 513 514 515 516 517 518 519 520 521 522 523 524 525 526
+ 527 528 529 530 531 532 533 534 535 536 537 538 539 540 541 542 543 544 545 546
+ 547 548 549 550 551 552 553 554 555 556 557 558 559 560 561 562 563 564 565 566
+ 567 568 569 570 571 572 573 574 575 576 577 578 579 580 581 582 583 584 585 586
+ 587 588 589 590 591 592 593 594 595 596 597 598 599 600 601 602 603 604 605 606
+ 607 608 609 610 611 612 613 614 615 616 617 618 619 620 621 622 623 624 625 626
+ 627 628 629 630 631 632 633 634 635 636 637 638 639 640 641 642 643 644 645 646
+ 647 648 649 650 651 652 653 667 681
** N=1339 EP=649 IP=5627 FDC=0
X0 652 1338 1338 1338 667 651 653 YA2GSD $T=1349740 1096780 0 90 $X=1210240 $Y=1099630
X1 10 2 685 1 INV1S $T=306280 1092120 0 180 $X=305040 $Y=1086700
X2 690 2 695 1 INV1S $T=316820 1102200 1 0 $X=316820 $Y=1096780
X3 17 2 707 1 INV1S $T=344720 1102200 1 0 $X=344720 $Y=1096780
X4 710 2 712 1 INV1S $T=349060 1102200 0 0 $X=349060 $Y=1101820
X5 21 2 713 1 INV1S $T=352780 1092120 1 0 $X=352780 $Y=1086700
X6 714 2 709 1 INV1S $T=356500 1112280 0 180 $X=355260 $Y=1106860
X7 694 2 31 1 INV1S $T=367040 1092120 0 0 $X=367040 $Y=1091740
X8 31 2 722 1 INV1S $T=372000 1092120 0 0 $X=372000 $Y=1091740
X9 52 2 40 1 INV1S $T=410440 1092120 1 0 $X=410440 $Y=1086700
X10 52 2 747 1 INV1S $T=411680 1092120 1 0 $X=411680 $Y=1086700
X11 771 2 775 1 INV1S $T=455080 1102200 0 0 $X=455080 $Y=1101820
X12 88 2 76 1 INV1S $T=456940 1092120 0 180 $X=455700 $Y=1086700
X13 30 2 88 1 INV1S $T=455700 1092120 0 0 $X=455700 $Y=1091740
X14 774 2 777 1 INV1S $T=456940 1102200 0 0 $X=456940 $Y=1101820
X15 88 2 767 1 INV1S $T=458180 1092120 1 0 $X=458180 $Y=1086700
X16 781 2 784 1 INV1S $T=464380 1092120 1 0 $X=464380 $Y=1086700
X17 776 2 792 1 INV1S $T=473680 1092120 1 0 $X=473680 $Y=1086700
X18 801 2 132 1 INV1S $T=487320 1112280 1 0 $X=487320 $Y=1106860
X19 804 2 137 1 INV1S $T=493520 1092120 0 180 $X=492280 $Y=1086700
X20 807 2 138 1 INV1S $T=494760 1102200 0 0 $X=494760 $Y=1101820
X21 809 2 141 1 INV1S $T=500340 1092120 0 180 $X=499100 $Y=1086700
X22 811 2 118 1 INV1S $T=500960 1102200 1 180 $X=499720 $Y=1101820
X23 811 2 789 1 INV1S $T=500960 1102200 0 0 $X=500960 $Y=1101820
X24 811 2 153 1 INV1S $T=511500 1102200 0 0 $X=511500 $Y=1101820
X25 170 2 811 1 INV1S $T=529480 1092120 1 180 $X=528240 $Y=1091740
X26 847 2 836 1 INV1S $T=554900 1112280 0 180 $X=553660 $Y=1106860
X27 135 2 847 1 INV1S $T=555520 1112280 1 0 $X=555520 $Y=1106860
X28 207 2 822 1 INV1S $T=567300 1102200 1 0 $X=567300 $Y=1096780
X29 847 2 867 1 INV1S $T=577840 1112280 1 0 $X=577840 $Y=1106860
X30 205 2 876 1 INV1S $T=590860 1112280 1 0 $X=590860 $Y=1106860
X31 876 2 225 1 INV1S $T=592720 1102200 0 0 $X=592720 $Y=1101820
X32 189 2 233 1 INV1S $T=597680 1092120 1 0 $X=597680 $Y=1086700
X33 876 2 869 1 INV1S $T=599540 1112280 0 180 $X=598300 $Y=1106860
X34 233 2 885 1 INV1S $T=603260 1092120 0 0 $X=603260 $Y=1091740
X35 883 2 888 1 INV1S $T=604500 1112280 1 0 $X=604500 $Y=1106860
X36 874 2 892 1 INV1S $T=610080 1092120 0 0 $X=610080 $Y=1091740
X37 895 2 897 1 INV1S $T=611940 1112280 0 0 $X=611940 $Y=1111900
X38 903 2 906 1 INV1S $T=623720 1102200 1 180 $X=622480 $Y=1101820
X39 866 2 905 1 INV1S $T=624340 1092120 1 180 $X=623100 $Y=1091740
X40 219 2 263 1 INV1S $T=639220 1092120 1 0 $X=639220 $Y=1086700
X41 924 2 925 1 INV1S $T=642940 1102200 1 0 $X=642940 $Y=1096780
X42 920 2 928 1 INV1S $T=645420 1092120 1 0 $X=645420 $Y=1086700
X43 919 2 932 1 INV1S $T=647900 1112280 1 0 $X=647900 $Y=1106860
X44 940 2 938 1 INV1S $T=657200 1112280 0 180 $X=655960 $Y=1106860
X45 942 2 945 1 INV1S $T=663400 1102200 0 180 $X=662160 $Y=1096780
X46 950 2 952 1 INV1S $T=673320 1102200 1 180 $X=672080 $Y=1101820
X47 958 2 962 1 INV1S $T=681380 1112280 1 0 $X=681380 $Y=1106860
X48 960 2 929 1 INV1S $T=683860 1092120 0 0 $X=683860 $Y=1091740
X49 294 2 960 1 INV1S $T=685720 1092120 0 0 $X=685720 $Y=1091740
X50 301 2 971 1 INV1S $T=697500 1102200 0 180 $X=696260 $Y=1096780
X51 972 2 977 1 INV1S $T=699980 1122360 1 0 $X=699980 $Y=1116940
X52 985 2 987 1 INV1S $T=712380 1122360 1 0 $X=712380 $Y=1116940
X53 301 2 992 1 INV1S $T=713000 1092120 0 0 $X=713000 $Y=1091740
X54 996 2 994 1 INV1S $T=716100 1112280 1 180 $X=714860 $Y=1111900
X55 1003 2 1004 1 INV1S $T=723540 1112280 0 0 $X=723540 $Y=1111900
X56 993 2 1008 1 INV1S $T=726020 1092120 0 0 $X=726020 $Y=1091740
X57 1014 2 1016 1 INV1S $T=730980 1122360 1 0 $X=730980 $Y=1116940
X58 1009 2 314 1 INV1S $T=734700 1092120 1 180 $X=733460 $Y=1091740
X59 338 2 1060 1 INV1S $T=778100 1102200 1 0 $X=778100 $Y=1096780
X60 1060 2 334 1 INV1S $T=779340 1102200 1 0 $X=779340 $Y=1096780
X61 1060 2 1045 1 INV1S $T=780580 1102200 1 180 $X=779340 $Y=1101820
X62 1060 2 1073 1 INV1S $T=796700 1112280 0 180 $X=795460 $Y=1106860
X63 1060 2 351 1 INV1S $T=797940 1092120 1 180 $X=796700 $Y=1091740
X64 395 2 1142 1 INV1S $T=865520 1092120 1 180 $X=864280 $Y=1091740
X65 395 2 396 1 INV1S $T=865520 1092120 1 0 $X=865520 $Y=1086700
X66 396 2 409 1 INV1S $T=886600 1092120 1 0 $X=886600 $Y=1086700
X67 409 2 1165 1 INV1S $T=895280 1092120 0 0 $X=895280 $Y=1091740
X68 464 2 1214 1 INV1S $T=953560 1092120 1 0 $X=953560 $Y=1086700
X69 1214 2 1218 1 INV1S $T=956040 1092120 0 0 $X=956040 $Y=1091740
X70 525 2 373 1 INV1S $T=1020520 1122360 1 180 $X=1019280 $Y=1121980
X71 525 2 538 1 INV1S $T=1035400 1122360 0 0 $X=1035400 $Y=1121980
X72 551 2 1290 1 INV1S $T=1045320 1102200 1 0 $X=1045320 $Y=1096780
X73 1290 2 1292 1 INV1S $T=1049040 1102200 1 0 $X=1049040 $Y=1096780
X74 569 2 1309 1 INV1S $T=1071980 1092120 0 0 $X=1071980 $Y=1091740
X75 1309 2 583 1 INV1S $T=1074460 1092120 0 0 $X=1074460 $Y=1091740
X76 1309 2 1311 1 INV1S $T=1076940 1092120 0 0 $X=1076940 $Y=1091740
X77 525 2 1338 1 INV1S $T=1127780 1112280 0 0 $X=1127780 $Y=1111900
X78 707 1 2 19 BUF1S $T=344100 1102200 1 180 $X=341620 $Y=1101820
X79 694 1 2 18 BUF1S $T=350920 1112280 1 0 $X=350920 $Y=1106860
X80 30 1 2 56 BUF1S $T=419740 1092120 1 0 $X=419740 $Y=1086700
X81 56 1 2 48 BUF1S $T=422220 1102200 0 180 $X=419740 $Y=1096780
X82 59 1 2 55 BUF1S $T=429040 1122360 1 180 $X=426560 $Y=1121980
X83 57 1 2 765 BUF1S $T=442680 1102200 0 0 $X=442680 $Y=1101820
X84 129 1 2 144 BUF1S $T=501580 1092120 1 0 $X=501580 $Y=1086700
X85 144 1 2 169 BUF1S $T=526380 1112280 1 0 $X=526380 $Y=1106860
X86 170 1 2 166 BUF1S $T=531960 1112280 0 180 $X=529480 $Y=1106860
X87 166 1 2 196 BUF1S $T=553040 1092120 0 0 $X=553040 $Y=1091740
X88 841 1 2 205 BUF1S $T=579080 1112280 1 0 $X=579080 $Y=1106860
X89 205 1 2 223 BUF1S $T=590240 1092120 1 0 $X=590240 $Y=1086700
X90 869 1 2 886 BUF1S $T=604500 1112280 0 0 $X=604500 $Y=1111900
X91 248 1 2 896 BUF1S $T=617520 1102200 1 180 $X=615040 $Y=1101820
X92 250 1 2 244 BUF1S $T=619380 1092120 1 180 $X=616900 $Y=1091740
X93 886 1 2 915 BUF1S $T=636120 1122360 1 0 $X=636120 $Y=1116940
X94 266 1 2 881 BUF1S $T=647900 1102200 0 180 $X=645420 $Y=1096780
X95 276 1 2 893 BUF1S $T=657820 1092120 0 0 $X=657820 $Y=1091740
X96 299 1 2 968 BUF1S $T=691920 1102200 0 180 $X=689440 $Y=1096780
X97 299 1 2 983 BUF1S $T=703700 1092120 0 0 $X=703700 $Y=1091740
X98 968 1 2 989 BUF1S $T=708040 1122360 1 0 $X=708040 $Y=1116940
X99 316 1 2 283 BUF1S $T=734700 1092120 0 180 $X=732220 $Y=1086700
X100 319 1 2 315 BUF1S $T=740280 1092120 0 180 $X=737800 $Y=1086700
X101 982 1 2 1029 BUF1S $T=750200 1112280 0 0 $X=750200 $Y=1111900
X102 1026 1 2 1037 BUF1S $T=756400 1102200 1 0 $X=756400 $Y=1096780
X103 1035 1 2 1030 BUF1S $T=756400 1122360 1 0 $X=756400 $Y=1116940
X104 334 1 2 320 BUF1S $T=768800 1092120 1 180 $X=766320 $Y=1091740
X105 1098 1 2 1101 BUF1S $T=828940 1102200 0 0 $X=828940 $Y=1101820
X106 376 1 2 1099 BUF1S $T=839480 1102200 0 180 $X=837000 $Y=1096780
X107 1039 1 2 377 BUF1S $T=837620 1092120 0 0 $X=837620 $Y=1091740
X108 386 1 2 1127 BUF1S $T=852500 1102200 0 0 $X=852500 $Y=1101820
X109 1142 1 2 1144 BUF1S $T=867380 1122360 0 0 $X=867380 $Y=1121980
X110 1159 1 2 1176 BUF1S $T=896520 1112280 0 0 $X=896520 $Y=1111900
X111 1165 1 2 1182 BUF1S $T=908300 1102200 1 0 $X=908300 $Y=1096780
X112 1186 1 2 1193 BUF1S $T=928760 1102200 0 0 $X=928760 $Y=1101820
X113 447 1 2 438 BUF1S $T=934340 1092120 1 0 $X=934340 $Y=1086700
X114 452 1 2 450 BUF1S $T=943020 1092120 0 180 $X=940540 $Y=1086700
X115 452 1 2 1211 BUF1S $T=943640 1102200 0 0 $X=943640 $Y=1101820
X116 1208 1 2 1216 BUF1S $T=946740 1112280 0 0 $X=946740 $Y=1111900
X117 417 1 2 1197 BUF1S $T=961620 1112280 0 0 $X=961620 $Y=1111900
X118 1221 1 2 1229 BUF1S $T=964720 1102200 0 0 $X=964720 $Y=1101820
X119 493 1 2 1239 BUF1S $T=986420 1102200 1 0 $X=986420 $Y=1096780
X120 500 1 2 1204 BUF1S $T=993240 1102200 1 0 $X=993240 $Y=1096780
X121 428 1 2 521 BUF1S $T=1011220 1112280 0 0 $X=1011220 $Y=1111900
X122 475 1 2 520 BUF1S $T=1011840 1092120 1 0 $X=1011840 $Y=1086700
X123 524 1 2 1260 BUF1S $T=1023000 1102200 1 0 $X=1023000 $Y=1096780
X124 1260 1 2 1286 BUF1S $T=1037880 1122360 1 0 $X=1037880 $Y=1116940
X125 1338 1 2 651 BUF1S $T=1126540 1122360 0 0 $X=1126540 $Y=1121980
X126 682 1 2 683 DELB $T=291400 1092120 1 0 $X=291400 $Y=1086700
X127 687 1 2 688 DELB $T=308140 1112280 1 0 $X=308140 $Y=1106860
X128 696 1 2 15 DELB $T=329840 1092120 0 0 $X=329840 $Y=1091740
X129 699 1 2 700 DELB $T=332320 1112280 1 0 $X=332320 $Y=1106860
X130 702 1 2 705 DELB $T=336660 1102200 0 0 $X=336660 $Y=1101820
X131 23 1 2 28 DELB $T=345960 1102200 1 0 $X=345960 $Y=1096780
X132 715 1 2 718 DELB $T=355260 1102200 0 0 $X=355260 $Y=1101820
X133 716 1 2 717 DELB $T=362080 1092120 0 0 $X=362080 $Y=1091740
X134 727 1 2 733 DELB $T=393700 1122360 1 0 $X=393700 $Y=1116940
X135 729 1 2 738 DELB $T=399900 1112280 1 0 $X=399900 $Y=1106860
X136 739 1 2 742 DELB $T=406100 1112280 1 0 $X=406100 $Y=1106860
X137 746 1 2 748 DELB $T=412920 1112280 1 0 $X=412920 $Y=1106860
X138 752 1 2 751 DELB $T=422220 1092120 1 0 $X=422220 $Y=1086700
X139 756 1 2 758 DELB $T=426560 1102200 1 0 $X=426560 $Y=1096780
X140 67 1 2 71 DELB $T=435860 1092120 1 0 $X=435860 $Y=1086700
X141 760 1 2 764 DELB $T=443300 1092120 1 0 $X=443300 $Y=1086700
X142 82 1 2 86 DELB $T=450740 1092120 1 0 $X=450740 $Y=1086700
X143 774 1 2 773 DELB $T=454460 1112280 0 0 $X=454460 $Y=1111900
X144 92 1 2 95 DELB $T=461280 1112280 0 0 $X=461280 $Y=1111900
X145 785 1 2 786 DELB $T=466860 1092120 0 0 $X=466860 $Y=1091740
X146 791 1 2 793 DELB $T=471820 1112280 0 0 $X=471820 $Y=1111900
X147 107 1 2 116 DELB $T=475540 1102200 1 0 $X=475540 $Y=1096780
X148 801 1 2 799 DELB $T=488560 1112280 0 0 $X=488560 $Y=1111900
X149 804 1 2 803 DELB $T=491660 1092120 0 0 $X=491660 $Y=1091740
X150 807 1 2 808 DELB $T=496620 1112280 1 0 $X=496620 $Y=1106860
X151 809 1 2 810 DELB $T=497860 1092120 0 0 $X=497860 $Y=1091740
X152 813 1 2 818 DELB $T=505300 1092120 1 0 $X=505300 $Y=1086700
X153 816 1 2 817 DELB $T=507780 1112280 1 0 $X=507780 $Y=1106860
X154 152 1 2 158 DELB $T=512740 1092120 1 0 $X=512740 $Y=1086700
X155 820 1 2 819 DELB $T=512740 1112280 0 0 $X=512740 $Y=1111900
X156 156 1 2 162 DELB $T=515840 1122360 0 0 $X=515840 $Y=1121980
X157 823 1 2 827 DELB $T=517700 1092120 0 0 $X=517700 $Y=1091740
X158 831 1 2 832 DELB $T=532580 1122360 1 0 $X=532580 $Y=1116940
X159 835 1 2 834 DELB $T=538160 1092120 0 0 $X=538160 $Y=1091740
X160 185 1 2 191 DELB $T=544980 1102200 1 0 $X=544980 $Y=1096780
X161 844 1 2 845 DELB $T=553040 1102200 1 0 $X=553040 $Y=1096780
X162 199 1 2 202 DELB $T=556760 1122360 0 0 $X=556760 $Y=1121980
X163 848 1 2 843 DELB $T=558620 1092120 0 0 $X=558620 $Y=1091740
X164 855 1 2 852 DELB $T=565440 1122360 1 0 $X=565440 $Y=1116940
X165 851 1 2 857 DELB $T=566060 1092120 0 0 $X=566060 $Y=1091740
X166 211 1 2 216 DELB $T=571640 1122360 1 0 $X=571640 $Y=1116940
X167 859 1 2 860 DELB $T=572260 1102200 1 0 $X=572260 $Y=1096780
X168 854 1 2 862 DELB $T=574740 1112280 0 0 $X=574740 $Y=1111900
X169 861 1 2 864 DELB $T=579700 1092120 0 0 $X=579700 $Y=1091740
X170 221 1 2 224 DELB $T=581560 1112280 1 0 $X=581560 $Y=1106860
X171 222 1 2 873 DELB $T=585280 1092120 0 0 $X=585280 $Y=1091740
X172 889 1 2 891 DELB $T=610080 1112280 1 0 $X=610080 $Y=1106860
X173 895 1 2 894 DELB $T=611320 1122360 0 0 $X=611320 $Y=1121980
X174 903 1 2 907 DELB $T=618760 1122360 0 0 $X=618760 $Y=1121980
X175 901 1 2 911 DELB $T=624960 1102200 1 0 $X=624960 $Y=1096780
X176 902 1 2 912 DELB $T=633020 1102200 0 0 $X=633020 $Y=1101820
X177 919 1 2 923 DELB $T=642940 1122360 0 0 $X=642940 $Y=1121980
X178 270 1 2 274 DELB $T=651620 1122360 0 0 $X=651620 $Y=1121980
X179 935 1 2 936 DELB $T=652240 1102200 0 0 $X=652240 $Y=1101820
X180 937 1 2 934 DELB $T=653480 1122360 1 0 $X=653480 $Y=1116940
X181 941 1 2 933 DELB $T=660300 1092120 0 0 $X=660300 $Y=1091740
X182 940 1 2 946 DELB $T=660920 1122360 1 0 $X=660920 $Y=1116940
X183 280 1 2 282 DELB $T=666500 1092120 0 0 $X=666500 $Y=1091740
X184 950 1 2 954 DELB $T=669600 1122360 1 0 $X=669600 $Y=1116940
X185 286 1 2 290 DELB $T=677040 1122360 1 0 $X=677040 $Y=1116940
X186 287 1 2 292 DELB $T=678280 1092120 0 0 $X=678280 $Y=1091740
X187 958 1 2 957 DELB $T=681380 1112280 0 0 $X=681380 $Y=1111900
X188 965 1 2 970 DELB $T=690060 1112280 0 0 $X=690060 $Y=1111900
X189 972 1 2 975 DELB $T=695020 1122360 1 0 $X=695020 $Y=1116940
X190 991 1 2 998 DELB $T=716720 1102200 1 0 $X=716720 $Y=1096780
X191 1001 1 2 1010 DELB $T=722920 1102200 1 0 $X=722920 $Y=1096780
X192 1003 1 2 1006 DELB $T=726020 1122360 1 0 $X=726020 $Y=1116940
X193 1009 1 2 1015 DELB $T=727260 1092120 1 0 $X=727260 $Y=1086700
X194 324 1 2 327 DELB $T=750820 1102200 1 0 $X=750820 $Y=1096780
X195 330 1 2 332 DELB $T=758880 1102200 1 0 $X=758880 $Y=1096780
X196 336 1 2 340 DELB $T=776860 1092120 1 0 $X=776860 $Y=1086700
X197 339 1 2 342 DELB $T=778100 1122360 0 0 $X=778100 $Y=1121980
X198 1063 1 2 1066 DELB $T=782440 1102200 0 0 $X=782440 $Y=1101820
X199 1067 1 2 1068 DELB $T=786160 1122360 0 0 $X=786160 $Y=1121980
X200 349 1 2 353 DELB $T=791120 1092120 1 0 $X=791120 $Y=1086700
X201 1075 1 2 1079 DELB $T=794220 1122360 0 0 $X=794220 $Y=1121980
X202 1074 1 2 1065 DELB $T=795460 1102200 1 0 $X=795460 $Y=1096780
X203 355 1 2 358 DELB $T=800420 1112280 1 0 $X=800420 $Y=1106860
X204 1087 1 2 1085 DELB $T=804140 1092120 0 0 $X=804140 $Y=1091740
X205 364 1 2 367 DELB $T=814680 1122360 0 0 $X=814680 $Y=1121980
X206 368 1 2 370 DELB $T=821500 1122360 0 0 $X=821500 $Y=1121980
X207 1094 1 2 1104 DELB $T=822740 1112280 1 0 $X=822740 $Y=1106860
X208 1096 1 2 1105 DELB $T=827700 1112280 0 0 $X=827700 $Y=1111900
X209 1118 1 2 1124 DELB $T=844440 1112280 1 0 $X=844440 $Y=1106860
X210 1129 1 2 1137 DELB $T=852500 1112280 0 0 $X=852500 $Y=1111900
X211 1148 1 2 1152 DELB $T=869240 1112280 0 0 $X=869240 $Y=1111900
X212 1145 1 2 1154 DELB $T=875440 1112280 1 0 $X=875440 $Y=1106860
X213 1161 1 2 1167 DELB $T=887220 1102200 1 0 $X=887220 $Y=1096780
X214 421 1 2 425 DELB $T=903960 1102200 0 0 $X=903960 $Y=1101820
X215 1044 1 2 1043 DELB $T=917600 1122360 0 0 $X=917600 $Y=1121980
X216 431 1 2 440 DELB $T=920700 1112280 0 0 $X=920700 $Y=1111900
X217 446 1 2 449 DELB $T=934340 1122360 0 0 $X=934340 $Y=1121980
X218 1219 1 2 1224 DELB $T=955420 1112280 1 0 $X=955420 $Y=1106860
X219 467 1 2 472 DELB $T=958520 1092120 1 0 $X=958520 $Y=1086700
X220 1222 1 2 1223 DELB $T=959140 1102200 0 0 $X=959140 $Y=1101820
X221 470 1 2 477 DELB $T=959760 1122360 0 0 $X=959760 $Y=1121980
X222 1228 1 2 1231 DELB $T=967820 1102200 0 0 $X=967820 $Y=1101820
X223 487 1 2 490 DELB $T=974640 1112280 0 0 $X=974640 $Y=1111900
X224 492 1 2 496 DELB $T=983320 1112280 0 0 $X=983320 $Y=1111900
X225 1254 1 2 1253 DELB $T=1001300 1092120 0 0 $X=1001300 $Y=1091740
X226 1262 1 2 1267 DELB $T=1008120 1092120 0 0 $X=1008120 $Y=1091740
X227 1269 1 2 1273 DELB $T=1018040 1112280 0 0 $X=1018040 $Y=1111900
X228 1277 1 2 1276 DELB $T=1027960 1112280 0 0 $X=1027960 $Y=1111900
X229 544 1 2 550 DELB $T=1040360 1122360 1 0 $X=1040360 $Y=1116940
X230 1279 1 2 1282 DELB $T=1042840 1112280 1 0 $X=1042840 $Y=1106860
X231 590 1 2 595 DELB $T=1080040 1092120 1 0 $X=1080040 $Y=1086700
X232 546 1 2 1295 DELB $T=1080660 1112280 1 0 $X=1080660 $Y=1106860
X233 598 1 2 603 DELB $T=1085000 1122360 0 0 $X=1085000 $Y=1121980
X234 1316 1 2 1317 DELB $T=1086860 1092120 1 0 $X=1086860 $Y=1086700
X235 1318 1 2 1319 DELB $T=1089960 1102200 0 0 $X=1089960 $Y=1101820
X236 1328 1 2 1327 DELB $T=1099880 1112280 1 0 $X=1099880 $Y=1106860
X237 619 1 2 625 DELB $T=1105460 1102200 1 0 $X=1105460 $Y=1096780
X238 1332 1 2 1333 DELB $T=1110420 1092120 0 0 $X=1110420 $Y=1091740
X239 643 1 2 648 DELB $T=1121580 1122360 0 0 $X=1121580 $Y=1121980
X240 644 1 2 650 DELB $T=1122200 1112280 0 0 $X=1122200 $Y=1111900
X241 63 1 2 68 DELA $T=431520 1122360 1 0 $X=431520 $Y=1116940
X242 72 1 2 78 DELA $T=441440 1122360 0 0 $X=441440 $Y=1121980
X243 99 1 2 103 DELA $T=466240 1122360 0 0 $X=466240 $Y=1121980
X244 100 1 2 104 DELA $T=466860 1112280 0 0 $X=466860 $Y=1111900
X245 119 1 2 124 DELA $T=481120 1122360 0 0 $X=481120 $Y=1121980
X246 123 1 2 131 DELA $T=484220 1122360 1 0 $X=484220 $Y=1116940
X247 163 1 2 167 DELA $T=522040 1122360 0 0 $X=522040 $Y=1121980
X248 168 1 2 172 DELA $T=527000 1122360 0 0 $X=527000 $Y=1121980
X249 195 1 2 198 DELA $T=551800 1122360 0 0 $X=551800 $Y=1121980
X250 215 1 2 218 DELA $T=572880 1122360 0 0 $X=572880 $Y=1121980
X251 227 1 2 230 DELA $T=591480 1122360 0 0 $X=591480 $Y=1121980
X252 231 1 2 235 DELA $T=596440 1122360 0 0 $X=596440 $Y=1121980
X253 253 1 2 254 DELA $T=628060 1122360 0 0 $X=628060 $Y=1121980
X254 255 1 2 260 DELA $T=633020 1122360 0 0 $X=633020 $Y=1121980
X255 261 1 2 265 DELA $T=637980 1122360 0 0 $X=637980 $Y=1121980
X256 344 1 2 347 DELA $T=786160 1092120 1 0 $X=786160 $Y=1086700
X257 427 1 2 430 DELA $T=912640 1122360 0 0 $X=912640 $Y=1121980
X258 457 1 2 462 DELA $T=948600 1092120 1 0 $X=948600 $Y=1086700
X259 460 1 2 466 DELA $T=951700 1122360 0 0 $X=951700 $Y=1121980
X260 497 1 2 502 DELA $T=987660 1122360 1 0 $X=987660 $Y=1116940
X261 507 1 2 512 DELA $T=999440 1122360 0 0 $X=999440 $Y=1121980
X262 533 1 2 537 DELA $T=1030440 1122360 0 0 $X=1030440 $Y=1121980
X263 539 1 2 545 DELA $T=1036640 1122360 0 0 $X=1036640 $Y=1121980
X264 548 1 2 556 DELA $T=1045320 1122360 0 0 $X=1045320 $Y=1121980
X265 566 1 2 572 DELA $T=1060200 1122360 0 0 $X=1060200 $Y=1121980
X266 596 1 2 602 DELA $T=1084380 1102200 0 0 $X=1084380 $Y=1101820
X267 613 1 2 618 DELA $T=1100500 1102200 1 0 $X=1100500 $Y=1096780
X268 614 1 2 620 DELA $T=1101120 1122360 1 0 $X=1101120 $Y=1116940
X269 616 1 2 622 DELA $T=1101740 1122360 0 0 $X=1101740 $Y=1121980
X270 621 1 2 626 DELA $T=1106080 1122360 1 0 $X=1106080 $Y=1116940
X271 628 1 2 631 DELA $T=1111040 1122360 1 0 $X=1111040 $Y=1116940
X272 632 1 2 638 DELA $T=1116000 1122360 1 0 $X=1116000 $Y=1116940
X273 635 1 2 641 DELA $T=1116620 1122360 0 0 $X=1116620 $Y=1121980
X274 640 1 2 646 DELA $T=1120960 1122360 1 0 $X=1120960 $Y=1116940
X275 642 1 2 647 DELA $T=1121580 1112280 1 0 $X=1121580 $Y=1106860
X276 683 7 5 2 1 686 QDFFRBN $T=292640 1092120 0 0 $X=292640 $Y=1091740
X277 688 7 694 2 1 690 QDFFRBN $T=307520 1102200 0 0 $X=307520 $Y=1101820
X278 11 7 5 2 1 14 QDFFRBN $T=308140 1092120 1 0 $X=308140 $Y=1086700
X279 700 7 694 2 1 689 QDFFRBN $T=334180 1102200 1 180 $X=322400 $Y=1101820
X280 16 7 18 2 1 696 QDFFRBN $T=326120 1092120 1 0 $X=326120 $Y=1086700
X281 703 7 18 2 1 702 QDFFRBN $T=337280 1112280 1 0 $X=337280 $Y=1106860
X282 717 7 18 2 1 21 QDFFRBN $T=367040 1092120 0 180 $X=355260 $Y=1086700
X283 718 7 694 2 1 714 QDFFRBN $T=368900 1102200 0 180 $X=357120 $Y=1096780
X284 719 32 722 2 1 725 QDFFRBN $T=370140 1102200 0 0 $X=370140 $Y=1101820
X285 720 32 722 2 1 33 QDFFRBN $T=371380 1092120 1 0 $X=371380 $Y=1086700
X286 721 32 722 2 1 726 QDFFRBN $T=372000 1102200 1 0 $X=372000 $Y=1096780
X287 723 32 722 2 1 727 QDFFRBN $T=373860 1112280 1 0 $X=373860 $Y=1106860
X288 736 32 722 2 1 729 QDFFRBN $T=401140 1112280 1 180 $X=389360 $Y=1111900
X289 734 32 48 2 1 47 QDFFRBN $T=394320 1092120 0 0 $X=394320 $Y=1091740
X290 740 32 48 2 1 739 QDFFRBN $T=402380 1102200 0 0 $X=402380 $Y=1101820
X291 741 32 48 2 1 746 QDFFRBN $T=404240 1112280 0 0 $X=404240 $Y=1111900
X292 743 32 48 2 1 752 QDFFRBN $T=407340 1092120 0 0 $X=407340 $Y=1091740
X293 750 32 48 2 1 756 QDFFRBN $T=417880 1112280 1 0 $X=417880 $Y=1106860
X294 761 61 56 2 1 755 QDFFRBN $T=434000 1092120 1 180 $X=422220 $Y=1091740
X295 766 61 722 2 1 759 QDFFRBN $T=443920 1112280 0 180 $X=432140 $Y=1106860
X296 762 61 767 2 1 760 QDFFRBN $T=435860 1102200 1 0 $X=435860 $Y=1096780
X297 85 61 76 2 1 64 QDFFRBN $T=454460 1092120 1 180 $X=442680 $Y=1091740
X298 768 61 767 2 1 771 QDFFRBN $T=446400 1112280 1 0 $X=446400 $Y=1106860
X299 769 61 767 2 1 774 QDFFRBN $T=446400 1122360 1 0 $X=446400 $Y=1116940
X300 772 61 767 2 1 781 QDFFRBN $T=450120 1102200 1 0 $X=450120 $Y=1096780
X301 780 61 767 2 1 785 QDFFRBN $T=461280 1112280 1 0 $X=461280 $Y=1106860
X302 782 61 789 2 1 791 QDFFRBN $T=461900 1122360 1 0 $X=461900 $Y=1116940
X303 94 61 767 2 1 776 QDFFRBN $T=463760 1102200 1 0 $X=463760 $Y=1096780
X304 795 61 789 2 1 801 QDFFRBN $T=476780 1112280 0 0 $X=476780 $Y=1111900
X305 800 61 118 2 1 109 QDFFRBN $T=489800 1092120 1 180 $X=478020 $Y=1091740
X306 797 61 789 2 1 804 QDFFRBN $T=481120 1102200 0 0 $X=481120 $Y=1101820
X307 802 61 789 2 1 807 QDFFRBN $T=489180 1122360 1 0 $X=489180 $Y=1116940
X308 805 61 118 2 1 809 QDFFRBN $T=491660 1102200 1 0 $X=491660 $Y=1096780
X309 806 61 789 2 1 816 QDFFRBN $T=493520 1112280 0 0 $X=493520 $Y=1111900
X310 814 61 789 2 1 820 QDFFRBN $T=504060 1122360 1 0 $X=504060 $Y=1116940
X311 815 61 153 2 1 155 QDFFRBN $T=504680 1092120 0 0 $X=504680 $Y=1091740
X312 812 61 153 2 1 813 QDFFRBN $T=505300 1102200 1 0 $X=505300 $Y=1096780
X313 824 61 166 2 1 823 QDFFRBN $T=517080 1102200 0 0 $X=517080 $Y=1101820
X314 826 61 166 2 1 825 QDFFRBN $T=517700 1112280 0 0 $X=517700 $Y=1111900
X315 829 61 170 2 1 835 QDFFRBN $T=525760 1092120 1 0 $X=525760 $Y=1086700
X316 839 182 170 2 1 830 QDFFRBN $T=543120 1102200 1 180 $X=531340 $Y=1101820
X317 833 61 166 2 1 831 QDFFRBN $T=532580 1112280 0 0 $X=532580 $Y=1111900
X318 838 182 170 2 1 174 QDFFRBN $T=544980 1102200 0 180 $X=533200 $Y=1096780
X319 186 182 196 2 1 197 QDFFRBN $T=544980 1092120 1 0 $X=544980 $Y=1086700
X320 840 182 166 2 1 848 QDFFRBN $T=545600 1102200 0 0 $X=545600 $Y=1101820
X321 842 182 841 2 1 844 QDFFRBN $T=547460 1112280 0 0 $X=547460 $Y=1111900
X322 846 182 841 2 1 855 QDFFRBN $T=553660 1122360 1 0 $X=553660 $Y=1116940
X323 201 182 205 2 1 106 QDFFRBN $T=558620 1092120 1 0 $X=558620 $Y=1086700
X324 850 182 205 2 1 851 QDFFRBN $T=558620 1102200 0 0 $X=558620 $Y=1101820
X325 863 182 841 2 1 854 QDFFRBN $T=574740 1112280 1 180 $X=562960 $Y=1111900
X326 872 182 869 2 1 853 QDFFRBN $T=588380 1122360 0 180 $X=576600 $Y=1116940
X327 220 182 223 2 1 226 QDFFRBN $T=577840 1092120 1 0 $X=577840 $Y=1086700
X328 865 182 205 2 1 859 QDFFRBN $T=590240 1102200 1 180 $X=578460 $Y=1101820
X329 868 182 225 2 1 861 QDFFRBN $T=579700 1102200 1 0 $X=579700 $Y=1096780
X330 882 182 869 2 1 874 QDFFRBN $T=602020 1092120 1 180 $X=590240 $Y=1091740
X331 875 182 869 2 1 879 QDFFRBN $T=590240 1112280 0 0 $X=590240 $Y=1111900
X332 877 182 869 2 1 883 QDFFRBN $T=591480 1122360 1 0 $X=591480 $Y=1116940
X333 878 182 225 2 1 889 QDFFRBN $T=595200 1102200 1 0 $X=595200 $Y=1096780
X334 234 182 225 2 1 242 QDFFRBN $T=599540 1092120 1 0 $X=599540 $Y=1086700
X335 887 182 886 2 1 895 QDFFRBN $T=606360 1122360 1 0 $X=606360 $Y=1116940
X336 900 182 886 2 1 903 QDFFRBN $T=614420 1112280 0 0 $X=614420 $Y=1111900
X337 914 182 252 2 1 901 QDFFRBN $T=633020 1092120 0 180 $X=621240 $Y=1086700
X338 908 182 886 2 1 866 QDFFRBN $T=621240 1122360 1 0 $X=621240 $Y=1116940
X339 910 182 915 2 1 902 QDFFRBN $T=621860 1112280 1 0 $X=621860 $Y=1106860
X340 913 182 886 2 1 919 QDFFRBN $T=628680 1112280 0 0 $X=628680 $Y=1111900
X341 916 182 262 2 1 920 QDFFRBN $T=631160 1092120 0 0 $X=631160 $Y=1091740
X342 917 182 915 2 1 924 QDFFRBN $T=635500 1112280 1 0 $X=635500 $Y=1106860
X343 922 182 915 2 1 937 QDFFRBN $T=641700 1122360 1 0 $X=641700 $Y=1116940
X344 927 182 262 2 1 941 QDFFRBN $T=645420 1092120 0 0 $X=645420 $Y=1091740
X345 939 279 915 2 1 935 QDFFRBN $T=668360 1122360 1 180 $X=656580 $Y=1121980
X346 948 279 915 2 1 940 QDFFRBN $T=668980 1112280 1 180 $X=657200 $Y=1111900